58

N 3.340   1.334  -6.229
N -5.878   2.881  -2.875
N 1.486   4.378   2.962
C -0.295   2.887  -2.148
C 0.660   2.610  -3.193
C -1.721   2.840  -2.355
C 0.119   3.363  -0.860
C 0.194   1.836  -4.276
C -2.574   2.219  -1.430
C 2.040   3.068  -3.263
C -2.329   3.467  -3.517
C 1.272   2.765  -0.255
C -0.589   4.260  -0.059
C 2.462   1.744  -5.243
C -4.504   2.865  -2.715
C 1.116   4.163   1.696
C 1.043   1.393  -5.276
C -3.931   2.240  -1.599
C 2.886   2.569  -4.185
C -3.704   3.487  -3.663
C 1.759   3.127   0.948
C -0.052   4.663   1.182
C 2.957   0.305  -7.188
C 4.678   1.871  -6.118
C -6.508   3.476  -4.067
C -6.630   2.125  -1.889
C 0.662   5.191   3.836
C 2.583   3.759   3.663
H -0.887   1.560  -4.322
H -2.100   1.842  -0.503
H 2.379   3.767  -2.434
H -1.746   4.086  -4.252
H 1.838   1.945  -0.748
H -1.508   4.616  -0.516
H 0.631   0.733  -6.005
H -4.559   1.730  -0.935
H 3.949   2.957  -4.229
H -4.148   3.798  -4.605
H 2.682   2.614   1.395
H -0.609   5.478   1.676
H 2.186   0.624  -7.828
H 2.558  -0.599  -6.631
H 3.881   0.051  -7.704
H 5.284   1.682  -6.995
H 4.687   3.005  -5.928
H 5.210   1.425  -5.306
H -7.600   3.206  -4.043
H -6.084   3.017  -5.011
H -6.298   4.509  -4.082
H -7.657   2.308  -2.063
H -6.423   2.595  -0.936
H -6.266   1.064  -1.868
H 0.739   6.219   3.565
H 0.969   4.967   4.847
H -0.377   4.853   3.726
H 2.274   2.944   4.270
H 3.049   4.527   4.305
H 3.296   3.345   2.984
