58

N 5.416   2.816   5.553
N -0.497   6.863  -1.357
N 3.193  -2.396  -2.455
C 2.482   2.250   0.665
C 3.122   2.385   1.997
C 1.726   3.435   0.128
C 2.617   1.103  -0.159
C 3.457   1.223   2.858
C 1.825   3.935  -1.189
C 3.537   3.629   2.448
C 0.879   4.247   0.944
C 1.827   0.855  -1.293
C 3.632   0.136   0.136
C 4.640   2.607   4.483
C 0.245   5.808  -0.896
C 3.063  -1.286  -1.703
C 4.121   1.357   4.134
C 1.151   5.067  -1.704
C 4.340   3.780   3.618
C 0.144   5.368   0.459
C 2.061  -0.303  -2.015
C 3.891  -1.022  -0.565
C 5.862   4.119   5.985
C 5.603   1.709   6.462
C -1.347   7.707  -0.519
C -0.302   7.223  -2.729
C 4.315  -3.350  -2.095
C 2.596  -2.724  -3.724
H 3.153   0.242   2.617
H 2.457   3.440  -1.880
H 3.422   4.453   1.755
H 0.941   4.001   1.940
H 1.059   1.560  -1.579
H 4.367   0.375   0.927
H 4.263   0.427   4.752
H 1.564   5.523  -2.642
H 4.603   4.778   3.908
H -0.356   5.955   1.245
H 1.364  -0.433  -2.903
H 4.779  -1.589  -0.405
H 6.790   4.018   6.502
H 5.055   4.666   6.507
H 6.164   4.676   5.075
H 6.248   2.027   7.298
H 4.678   1.378   6.962
H 6.020   0.856   6.018
H -2.201   8.033  -1.094
H -0.740   8.583  -0.196
H -1.673   7.253   0.493
H -0.925   8.104  -2.964
H -0.603   6.387  -3.323
H 0.702   7.576  -2.962
H 4.279  -3.382  -0.976
H 5.284  -2.925  -2.426
H 4.025  -4.326  -2.505
H 2.789  -1.897  -4.442
H 1.483  -2.880  -3.658
H 3.091  -3.613  -4.170
