58

N 3.972   5.217   2.301
N -1.729   6.456  -5.051
N 2.741  -2.677  -3.126
C 1.840   2.814  -2.363
C 2.243   3.469  -1.138
C 0.919   3.660  -3.133
C 2.108   1.481  -2.708
C 2.732   2.731  -0.030
C 1.104   4.055  -4.452
C 2.320   4.896  -0.989
C -0.246   4.176  -2.466
C 1.248   0.632  -3.525
C 3.252   0.813  -2.185
C 3.387   4.646   1.200
C -0.804   5.616  -4.430
C 2.518  -1.348  -3.001
C 3.316   3.227   1.094
C 0.297   5.024  -5.091
C 2.858   5.433   0.144
C -1.003   5.205  -3.089
C 1.425  -0.703  -3.710
C 3.426  -0.560  -2.224
C 3.653   6.538   2.766
C 4.767   4.461   3.271
C -2.778   7.028  -4.272
C -1.780   6.552  -6.467
C 3.748  -3.380  -2.303
C 2.303  -3.327  -4.337
H 2.704   1.649  -0.206
H 1.946   3.614  -4.958
H 2.205   5.512  -1.863
H -0.319   4.001  -1.382
H 0.362   1.123  -3.970
H 3.981   1.405  -1.634
H 3.671   2.585   1.867
H 0.561   5.241  -6.083
H 3.128   6.463   0.131
H -1.795   5.579  -2.543
H 0.680  -1.290  -4.253
H 4.307  -1.021  -1.711
H 4.627   7.059   2.995
H 3.162   6.455   3.799
H 3.070   7.067   2.069
H 5.356   5.130   3.953
H 4.169   3.803   3.915
H 5.493   3.860   2.738
H -2.296   7.374  -3.385
H -3.581   6.376  -3.962
H -3.241   7.939  -4.747
H -2.264   7.479  -6.890
H -2.361   5.662  -6.850
H -0.807   6.488  -6.913
H 3.652  -4.439  -2.483
H 3.619  -3.357  -1.228
H 4.780  -3.143  -2.586
H 1.258  -3.636  -4.263
H 2.811  -4.242  -4.347
H 2.445  -2.676  -5.187
