58

N 6.143   2.049   2.722
N -3.903   2.146   3.296
N 0.745  -5.170  -0.946
C 1.028  -0.305   1.791
C 2.301   0.207   2.215
C -0.196   0.391   2.221
C 0.876  -1.515   1.149
C 2.628   0.984   3.336
C -0.388   1.794   2.258
C 3.427  -0.098   1.430
C -1.297  -0.367   2.654
C -0.086  -1.747   0.180
C 1.909  -2.496   1.286
C 4.983   1.390   2.621
C -2.695   1.606   2.986
C 0.894  -3.992  -0.291
C 3.912   1.587   3.540
C -1.547   2.404   2.598
C 4.735   0.388   1.569
C -2.527   0.220   3.015
C -0.086  -2.916  -0.521
C 1.950  -3.669   0.584
C 7.205   1.787   1.771
C 6.330   3.043   3.803
C -5.118   1.345   3.254
C -4.054   3.614   3.299
C 1.650  -6.361  -0.651
C -0.032  -5.197  -2.203
H 1.920   1.407   4.037
H 0.410   2.368   1.868
H 3.236  -0.570   0.431
H -1.173  -1.426   2.878
H -0.656  -0.881  -0.081
H 2.686  -2.247   1.991
H 4.077   2.224   4.447
H -1.695   3.443   2.457
H 5.544   0.187   0.862
H -3.306  -0.422   3.648
H -0.846  -3.036  -1.291
H 2.877  -4.306   0.734
H 7.835   2.660   1.753
H 6.915   1.616   0.782
H 7.881   0.953   2.052
H 6.455   2.553   4.725
H 7.199   3.586   3.468
H 5.517   3.772   3.812
H -5.219   0.742   2.258
H -6.037   1.877   3.212
H -5.226   0.559   3.991
H -3.794   4.001   2.302
H -3.357   4.080   4.020
H -5.037   3.870   3.643
H 2.657  -6.167  -0.981
H 1.255  -7.277  -1.074
H 1.742  -6.389   0.452
H -1.005  -5.666  -2.097
H 0.528  -5.788  -2.958
H -0.038  -4.202  -2.569
